Version 4
SHEET 1 1048 680
WIRE 672 -48 592 -48
WIRE 672 -16 672 -48
WIRE -336 0 -336 -16
WIRE 528 0 528 -32
WIRE 592 32 592 -48
WIRE -336 112 -336 80
WIRE -272 112 -336 112
WIRE 64 112 -96 112
WIRE 496 112 64 112
WIRE -272 128 -272 112
WIRE -336 144 -336 112
WIRE 848 144 768 144
WIRE 976 144 848 144
WIRE -96 160 -96 112
WIRE 496 176 416 176
WIRE -336 256 -336 224
WIRE 592 288 592 256
WIRE 592 288 528 288
WIRE -96 304 -96 240
WIRE 528 320 528 288
WIRE 416 416 416 176
WIRE 848 416 848 144
WIRE 848 416 416 416
FLAG -272 128 0
FLAG -336 256 V-
FLAG -336 -16 V+
FLAG 528 320 V+
FLAG 528 -32 V-
FLAG 976 144 Vout
FLAG 64 112 Vin
FLAG -96 304 0
FLAG 672 -16 0
SYMBOL voltage -336 128 R0
WINDOW 123 0 0 Left 0
WINDOW 39 0 0 Left 0
SYMATTR InstName V1
SYMATTR Value 12
SYMBOL voltage -336 -16 R0
WINDOW 123 0 0 Left 0
WINDOW 39 0 0 Left 0
SYMATTR InstName V2
SYMATTR Value 12
SYMBOL voltage -96 144 R0
WINDOW 123 24 124 Left 2
WINDOW 39 0 0 Left 0
SYMATTR Value2 AC 1
SYMATTR InstName Vin_source
SYMATTR Value ""
SYMBOL Opamps\\LTC2058 656 144 M180
SYMATTR InstName U1
TEXT -368 328 Left 2 ;.ac dec 100 100k 40e6
TEXT -360 376 Left 2 !.noise V(Vout) Vin_source dec 100 0.1 40Meg
