Version 4
SHEET 1 880 680
WIRE 416 -48 320 -48
WIRE -336 0 -336 -16
WIRE 256 0 256 -32
WIRE 416 0 416 -48
WIRE 320 32 320 -48
WIRE -336 112 -336 80
WIRE -272 112 -336 112
WIRE 64 112 -96 112
WIRE 224 112 64 112
WIRE -272 128 -272 112
WIRE -336 144 -336 112
WIRE 576 144 496 144
WIRE 704 144 576 144
WIRE -96 160 -96 112
WIRE 224 176 160 176
WIRE -336 256 -336 224
WIRE 320 288 320 256
WIRE 320 288 256 288
WIRE -96 304 -96 240
WIRE 256 320 256 288
WIRE 576 336 576 144
WIRE 160 448 160 176
WIRE 576 448 576 416
WIRE 576 448 160 448
WIRE 576 480 576 448
WIRE 576 608 576 560
FLAG -272 128 0
FLAG -336 256 V-
FLAG -336 -16 V+
FLAG 256 320 V+
FLAG 256 -32 V-
FLAG 704 144 Vout
FLAG 64 112 Vin
FLAG -96 304 0
FLAG 576 608 0
FLAG 416 0 0
SYMBOL voltage -336 128 R0
WINDOW 123 0 0 Left 0
WINDOW 39 0 0 Left 0
SYMATTR InstName V1
SYMATTR Value 12
SYMBOL voltage -336 -16 R0
WINDOW 123 0 0 Left 0
WINDOW 39 0 0 Left 0
SYMATTR InstName V2
SYMATTR Value 12
SYMBOL voltage -96 144 R0
WINDOW 123 24 124 Left 2
WINDOW 39 0 0 Left 0
SYMATTR Value2 AC 1
SYMATTR InstName V3
SYMATTR Value ""
SYMBOL res 560 320 R0
SYMATTR InstName R1
SYMATTR Value 220
SYMBOL res 560 464 R0
SYMATTR InstName R2
SYMATTR Value 470
SYMBOL Opamps\\LTC2058 384 144 M180
SYMATTR InstName U1
TEXT -368 328 Left 2 ;.ac dec 100 100 40e6
TEXT -360 384 Left 2 !.noise V(Vout) V3 dec 100 100 40Meg
