Version 4
SHEET 1 1048 680
WIRE 576 -320 416 -320
WIRE 848 -320 640 -320
WIRE 416 -208 416 -320
WIRE 576 -208 416 -208
WIRE 848 -208 848 -320
WIRE 848 -208 656 -208
WIRE 528 -64 528 -96
WIRE 592 -64 528 -64
WIRE 176 -48 96 -48
WIRE 592 -32 592 -64
WIRE -336 0 -336 -16
WIRE 96 0 96 -48
WIRE 176 32 176 -48
WIRE 304 32 176 32
WIRE 416 32 416 -208
WIRE 416 32 384 32
WIRE 416 48 416 32
WIRE 496 48 416 48
WIRE 848 80 848 -208
WIRE 848 80 768 80
WIRE 976 80 848 80
WIRE -336 112 -336 80
WIRE -272 112 -336 112
WIRE 16 112 -96 112
WIRE 176 112 16 112
WIRE 304 112 176 112
WIRE 416 112 384 112
WIRE 496 112 416 112
WIRE -272 128 -272 112
WIRE -336 144 -336 112
WIRE -96 160 -96 112
WIRE -336 256 -336 224
WIRE 416 256 416 112
WIRE 416 256 320 256
WIRE 528 256 528 224
WIRE 592 272 592 192
WIRE 672 272 672 240
WIRE 672 272 592 272
WIRE -96 304 -96 240
WIRE 320 304 320 256
WIRE 416 352 416 256
WIRE 320 416 320 384
WIRE 320 512 320 480
WIRE 416 512 416 432
WIRE 416 512 320 512
WIRE 416 560 416 512
FLAG -272 128 0
FLAG -336 256 V-
FLAG -336 -16 V+
FLAG 528 -96 V+
FLAG 528 256 V-
FLAG 976 80 Vout
FLAG 16 112 Vin
FLAG -96 304 0
FLAG 672 240 0
FLAG 416 560 0
FLAG 96 0 0
SYMBOL voltage -336 128 R0
WINDOW 123 0 0 Left 0
WINDOW 39 0 0 Left 0
SYMATTR InstName V1
SYMATTR Value 12
SYMBOL voltage -336 -16 R0
WINDOW 123 0 0 Left 0
WINDOW 39 0 0 Left 0
SYMATTR InstName V2
SYMATTR Value 12
SYMBOL voltage -96 144 R0
WINDOW 123 24 124 Left 2
WINDOW 39 0 0 Left 0
WINDOW 3 24 44 Left 2
SYMATTR Value {Vsin}
SYMATTR InstName Vin_source
SYMBOL Opamps\\LTC2058 656 80 R0
SYMATTR InstName U1
SYMBOL res 400 96 R90
WINDOW 0 96 54 VBottom 2
WINDOW 3 32 56 VTop 2
SYMATTR InstName R2
SYMATTR Value {Rx}
SYMBOL res 400 16 R90
WINDOW 0 -42 56 VBottom 2
WINDOW 3 -35 55 VTop 2
SYMATTR InstName R3
SYMATTR Value {Rx}
SYMBOL res 672 -224 R90
WINDOW 0 0 56 VBottom 2
WINDOW 3 32 56 VTop 2
SYMATTR InstName R4
SYMATTR Value {Rx}
SYMBOL res 160 16 R0
SYMATTR InstName R1
SYMATTR Value 0.1R
SYMBOL res 400 336 R0
SYMATTR InstName R5
SYMATTR Value {Rx}
SYMBOL cap 640 -336 R90
WINDOW 0 0 32 VBottom 2
WINDOW 3 32 32 VTop 2
SYMATTR InstName C1
SYMATTR Value 10n
SYMBOL cap 304 416 R0
SYMATTR InstName C2
SYMATTR Value 100n
SYMBOL res 304 288 R0
SYMATTR InstName R6
SYMATTR Value 22
TEXT -368 328 Left 2 ;.ac dec 100 100k 40e6
TEXT -360 376 Left 2 !.noise V(Vout) Vin_source dec 100 0.1 40Meg
TEXT -128 -8 Left 2 ;.tran 0.5
TEXT -344 432 Left 2 !.STEP PARAM Vsin -0.1 -3.3 0.1
TEXT 768 360 Left 2 !.param Rx=82R
