Version 4
SHEET 1 920 712
WIRE 320 -96 256 -96
WIRE 496 -96 320 -96
WIRE -736 -80 -736 -160
WIRE -192 -48 -416 -48
WIRE 256 -16 256 -96
WIRE 496 -16 496 -96
WIRE 320 16 320 -96
WIRE -736 96 -736 0
WIRE -416 96 -416 -48
WIRE -192 96 -192 -48
WIRE 16 96 -192 96
WIRE 224 96 96 96
WIRE 512 128 496 128
WIRE 544 128 512 128
WIRE 672 128 608 128
WIRE 848 128 672 128
WIRE 224 160 32 160
WIRE 512 224 512 128
WIRE 672 224 672 128
WIRE 672 224 512 224
WIRE -736 288 -736 176
WIRE -416 288 -416 176
WIRE 256 304 256 272
WIRE 320 304 320 240
WIRE 320 304 256 304
WIRE -192 336 -192 96
WIRE 256 352 256 304
WIRE 32 480 32 160
WIRE 336 480 32 480
WIRE 672 480 672 224
WIRE 672 480 416 480
WIRE 32 544 32 480
WIRE -192 672 -192 416
WIRE 32 672 32 624
FLAG 32 672 0
FLAG -192 672 0
FLAG -416 288 0
FLAG 256 352 V+
FLAG 496 -16 0
FLAG -736 -160 V+
FLAG 848 128 Vout
FLAG -736 288 V-
SYMBOL Opamps\\LTC2058 384 128 M180
SYMATTR InstName U1
SYMBOL res 112 80 R90
WINDOW 0 0 56 VBottom 2
WINDOW 3 32 56 VTop 2
SYMATTR InstName R1
SYMATTR Value 10R
SYMBOL res -208 320 R0
SYMATTR InstName R2
SYMATTR Value 0.1R
SYMBOL res 16 528 R0
SYMATTR InstName R3
SYMATTR Value 10R
SYMBOL res 432 464 R90
WINDOW 0 0 56 VBottom 2
WINDOW 3 32 56 VTop 2
SYMATTR InstName R4
SYMATTR Value 1K
SYMBOL diode 544 144 R270
WINDOW 0 32 32 VTop 2
WINDOW 3 0 32 VBottom 2
SYMATTR InstName D1
SYMATTR Value 1N4148
SYMBOL voltage -736 -96 R0
WINDOW 123 0 0 Left 0
WINDOW 39 0 0 Left 0
SYMATTR InstName V1
SYMATTR Value 12
SYMBOL voltage -416 80 R0
WINDOW 123 0 0 Left 0
WINDOW 39 0 0 Left 0
SYMATTR InstName Vin
SYMATTR Value {Vsource}
SYMBOL voltage -736 80 R0
WINDOW 123 0 0 Left 0
WINDOW 39 0 0 Left 0
SYMATTR InstName V2
SYMATTR Value 12
TEXT -1002 432 Left 2 !.tran 1
TEXT -1064 368 Left 2 !.STEP PARAM Vsource 0..2 3.2 0.2
