Version 4
SHEET 1 880 680
WIRE 464 -16 288 -16
WIRE 464 16 464 -16
WIRE 288 144 288 -16
WIRE 464 160 464 96
WIRE 240 224 112 224
WIRE 288 272 288 240
WIRE 112 288 112 224
WIRE 112 416 112 368
WIRE 288 416 288 352
FLAG 112 416 0
FLAG 288 416 0
FLAG 464 160 0
SYMBOL nmos 240 144 R0
SYMATTR InstName M1
SYMBOL voltage 112 272 R0
WINDOW 123 0 0 Left 0
WINDOW 39 0 0 Left 0
SYMATTR InstName V1
SYMATTR Value {Vin}
SYMBOL res 272 256 R0
SYMATTR InstName R1
SYMATTR Value 0.1
SYMBOL voltage 464 0 R0
WINDOW 123 0 0 Left 0
WINDOW 39 0 0 Left 0
SYMATTR InstName V2
SYMATTR Value 5
TEXT 344 392 Left 2 !.STEP PARAM Vin 0.2 3.3 0.2
TEXT 344 360 Left 2 !.TRAN 1
