Version 4
SHEET 1 1888 2352
WIRE -960 -272 -960 -304
WIRE -960 -160 -960 -192
WIRE -832 -160 -960 -160
WIRE -960 -128 -960 -160
WIRE -832 -128 -832 -160
WIRE -960 0 -960 -48
WIRE 1024 48 224 48
WIRE 1152 48 1104 48
WIRE -144 64 -192 64
WIRE -256 80 -256 64
WIRE -144 96 -144 64
WIRE -192 112 -192 64
WIRE 224 144 224 48
WIRE -288 192 -704 192
WIRE 176 224 -16 224
WIRE -704 256 -704 192
WIRE -288 256 -416 256
WIRE -192 368 -192 336
WIRE -192 368 -256 368
WIRE -256 384 -256 368
WIRE -704 416 -704 336
WIRE -416 480 -416 256
WIRE 224 480 224 240
WIRE 224 480 -416 480
WIRE 512 496 512 448
WIRE 224 512 224 480
WIRE 480 512 224 512
WIRE 224 544 224 512
WIRE 480 544 400 544
WIRE 400 560 400 544
WIRE 960 592 656 592
WIRE 480 640 400 640
WIRE 224 672 224 624
WIRE 480 672 224 672
WIRE 512 736 512 688
WIRE 224 816 224 672
WIRE 592 816 592 656
WIRE 592 816 224 816
WIRE 1152 816 1152 48
WIRE 1152 816 592 816
WIRE 1152 960 1152 816
WIRE 1344 960 1152 960
WIRE 1344 1040 1344 960
WIRE 656 1152 224 1152
WIRE 1152 1152 1152 960
WIRE 1152 1152 656 1152
WIRE 576 1264 576 1216
WIRE 224 1280 224 1152
WIRE 544 1280 224 1280
WIRE 656 1296 656 1152
WIRE 224 1312 224 1280
WIRE 544 1312 464 1312
WIRE 896 1360 720 1360
WIRE 464 1408 464 1392
WIRE 544 1408 464 1408
WIRE 224 1440 224 1392
WIRE 544 1440 224 1440
WIRE 576 1504 576 1456
WIRE 224 1552 224 1440
WIRE 224 1552 -416 1552
WIRE -96 1680 -160 1680
WIRE -224 1712 -224 1648
WIRE -96 1712 -96 1680
WIRE -160 1744 -160 1680
WIRE -416 1824 -416 1552
WIRE -256 1824 -416 1824
WIRE 224 1840 224 1552
WIRE 176 1856 16 1856
WIRE -256 1888 -736 1888
WIRE -736 1936 -736 1888
WIRE -224 2032 -224 2000
WIRE -160 2032 -160 1968
WIRE -160 2032 -224 2032
WIRE 224 2032 224 1936
WIRE 944 2032 224 2032
WIRE 1152 2032 1152 1152
WIRE 1152 2032 1024 2032
WIRE -224 2064 -224 2032
WIRE -736 2096 -736 2016
FLAG -832 -128 0
FLAG -960 0 V-
FLAG -960 -304 V+
FLAG -256 64 V-
FLAG -256 384 V+
FLAG -144 96 0
FLAG -704 416 0
FLAG -224 1648 V+
FLAG -224 2064 V-
FLAG -96 1712 0
FLAG 1344 1040 0
FLAG -736 2096 0
FLAG 512 448 V+
FLAG 512 736 V-
FLAG 960 592 VPOSOUT
FLAG 576 1216 V-
FLAG 576 1504 V+
FLAG 896 1360 VNEGOUT
SYMBOL nmos 176 144 R0
SYMATTR InstName M1
SYMBOL Opamps\\LTC2058 -128 224 M180
SYMATTR InstName U1
SYMBOL voltage 1008 48 R270
WINDOW 0 32 56 VTop 2
WINDOW 3 -32 56 VBottom 2
WINDOW 123 0 0 Left 0
WINDOW 39 0 0 Left 0
SYMATTR InstName V1
SYMATTR Value 15V
SYMBOL voltage -960 -144 R0
WINDOW 0 32 56 VTop 2
WINDOW 3 -32 56 VBottom 2
WINDOW 123 0 0 Left 0
WINDOW 39 0 0 Left 0
SYMATTR InstName V2
SYMATTR Value 5V
SYMBOL voltage -960 -288 R0
WINDOW 0 32 56 VTop 2
WINDOW 3 -32 56 VBottom 2
WINDOW 123 0 0 Left 0
WINDOW 39 0 0 Left 0
SYMATTR InstName V3
SYMATTR Value 5V
SYMBOL voltage -704 240 R0
WINDOW 0 32 56 VTop 2
WINDOW 3 -32 56 VBottom 2
WINDOW 123 0 0 Left 0
WINDOW 39 0 0 Left 0
SYMATTR InstName V4
SYMATTR Value {VPOSIN}
SYMBOL res 208 528 R0
SYMATTR InstName R1
SYMATTR Value 0.33R
SYMBOL Opamps\\LTC2058 -96 1856 R0
SYMATTR InstName U2
SYMBOL pmos 176 1936 M180
SYMATTR InstName M2
SYMBOL voltage 1040 2032 R90
WINDOW 0 32 56 VTop 2
WINDOW 3 -32 56 VBottom 2
WINDOW 123 0 0 Left 0
WINDOW 39 0 0 Left 0
SYMATTR InstName V5
SYMATTR Value 15V
SYMBOL voltage -736 1920 R0
WINDOW 123 0 0 Left 0
WINDOW 39 0 0 Left 0
SYMATTR InstName V6
SYMATTR Value {VPOSIN}
SYMBOL res 208 1296 R0
SYMATTR InstName R2
SYMATTR Value 0.33R
SYMBOL Opamps\\AD8421 576 1360 M180
SYMATTR InstName U3
SYMBOL Opamps\\AD8421 512 592 R0
SYMATTR InstName U4
SYMBOL res 384 544 R0
SYMATTR InstName R3
SYMATTR Value 10R
SYMBOL res 448 1296 R0
SYMATTR InstName R4
SYMATTR Value 10R
TEXT -896 560 Left 2 !.tran 1
TEXT -904 520 Left 2 !.STEP PARAM VPOSIN 0.5 5 0.5
