Version 4
SHEET 1 1432 680
WIRE 848 -64 752 -64
WIRE 752 -32 752 -64
WIRE -336 0 -336 -16
WIRE 848 0 848 -64
WIRE 1136 48 1136 -16
WIRE 64 64 -96 64
WIRE 288 64 64 64
WIRE 496 64 288 64
WIRE 752 64 752 32
WIRE 752 64 576 64
WIRE 880 64 752 64
WIRE 1104 64 880 64
WIRE 1104 96 1024 96
WIRE -336 112 -336 80
WIRE -272 112 -336 112
WIRE 288 112 288 64
WIRE 880 112 880 64
WIRE 1024 112 1024 96
WIRE -272 128 -272 112
WIRE -336 144 -336 112
WIRE 1328 144 1280 144
WIRE -96 160 -96 64
WIRE 1104 192 1024 192
WIRE 288 224 288 192
WIRE 496 224 288 224
WIRE 752 224 576 224
WIRE 880 224 880 176
WIRE 880 224 752 224
WIRE 1104 224 880 224
WIRE -336 256 -336 224
WIRE 752 256 752 224
WIRE 1136 272 1136 240
WIRE -96 304 -96 240
WIRE 288 320 288 224
WIRE 752 384 752 320
WIRE 1216 400 1216 208
FLAG -272 128 0
FLAG -336 256 V-
FLAG -336 -16 V+
FLAG 1136 -16 V+
FLAG 1136 272 V-
FLAG 1328 144 Vout
FLAG 64 64 Vin
FLAG -96 304 0
FLAG 1216 400 0
FLAG 288 320 0
FLAG 848 0 0
FLAG 752 384 0
SYMBOL voltage -336 128 R0
WINDOW 123 0 0 Left 0
WINDOW 39 0 0 Left 0
SYMATTR InstName V1
SYMATTR Value 12
SYMBOL voltage -336 -16 R0
WINDOW 123 0 0 Left 0
WINDOW 39 0 0 Left 0
SYMATTR InstName V2
SYMATTR Value 12
SYMBOL voltage -96 144 R0
WINDOW 123 24 124 Left 2
WINDOW 39 0 0 Left 0
WINDOW 3 24 44 Left 2
SYMATTR Value {Vin_source}
SYMATTR InstName Vin_source
SYMBOL Opamps\\AD8421 1136 144 R0
SYMATTR InstName U2
SYMBOL res 272 96 R0
SYMATTR InstName R1
SYMATTR Value 0.1R
SYMBOL cap 864 112 R0
SYMATTR InstName C1
SYMATTR Value 10n
SYMBOL cap 736 256 R0
SYMATTR InstName C2
SYMATTR Value 1n
SYMBOL cap 736 -32 R0
SYMATTR InstName C3
SYMATTR Value 1n
SYMBOL res 592 48 R90
WINDOW 0 0 56 VBottom 2
WINDOW 3 32 56 VTop 2
SYMATTR InstName R2
SYMATTR Value 33R
SYMBOL res 592 208 R90
WINDOW 0 0 56 VBottom 2
WINDOW 3 32 56 VTop 2
SYMATTR InstName R3
SYMATTR Value 33R
TEXT -368 328 Left 2 ;.ac dec 100 100k 40e6
TEXT -360 376 Left 2 !.noise V(Vout) Vin_source dec 100 0.1 40Meg
TEXT -200 448 Left 2 ;.tran .2
TEXT -288 544 Left 2 !.step param Vin_source 0.1 3.3 0.1
