Version 4
SHEET 1 1064 680
WIRE 656 -48 592 -48
WIRE -336 0 -336 -16
WIRE 528 0 528 -64
WIRE 656 0 656 -48
WIRE 592 32 592 -48
WIRE -336 112 -336 80
WIRE -272 112 -336 112
WIRE 64 112 -96 112
WIRE 240 112 64 112
WIRE 384 112 320 112
WIRE 496 112 384 112
WIRE -272 128 -272 112
WIRE -336 144 -336 112
WIRE 832 144 768 144
WIRE 960 144 832 144
WIRE -96 160 -96 112
WIRE 384 176 384 112
WIRE 496 176 448 176
WIRE -336 256 -336 224
WIRE -96 304 -96 240
WIRE 384 304 384 240
WIRE 528 320 528 288
WIRE 592 320 592 256
WIRE 592 320 528 320
WIRE 528 368 528 320
WIRE 448 448 448 176
WIRE 832 448 832 144
WIRE 832 448 448 448
FLAG -272 128 0
FLAG -336 256 V-
FLAG -336 -16 V+
FLAG 528 368 V+
FLAG 528 -64 V-
FLAG 960 144 Vout
FLAG 64 112 Vin
FLAG -96 304 0
FLAG 384 304 0
FLAG 656 0 0
SYMBOL voltage -336 128 R0
WINDOW 123 0 0 Left 0
WINDOW 39 0 0 Left 0
SYMATTR InstName V1
SYMATTR Value 2.5
SYMBOL voltage -336 -16 R0
WINDOW 123 0 0 Left 0
WINDOW 39 0 0 Left 0
SYMATTR InstName V2
SYMATTR Value 2.5
SYMBOL res 336 96 R90
WINDOW 0 0 56 VBottom 2
WINDOW 3 32 56 VTop 2
SYMATTR InstName R1
SYMATTR Value 100R
SYMBOL cap 400 240 R180
WINDOW 0 24 56 Left 2
WINDOW 3 24 8 Left 2
SYMATTR InstName C2
SYMATTR Value {C1}
SYMBOL voltage -96 144 R0
WINDOW 123 24 124 Left 2
WINDOW 39 0 0 Left 0
SYMATTR Value2 AC 1
SYMATTR InstName V3
SYMATTR Value ""
SYMBOL Opamps\\LTC2058 656 144 M180
SYMATTR InstName U1
TEXT -368 328 Left 2 ;.ac dec 100 100 40e6
TEXT -288 384 Left 2 !.noise V(Vout) V3 dec 100 10 10K
TEXT -296 424 Left 2 !.step param C1 0u 10u 1u
