Version 4
SHEET 1 2148 1556
WIRE 464 -16 288 -16
WIRE 464 16 464 -16
WIRE 640 96 560 96
WIRE 560 128 560 96
WIRE 640 128 640 96
WIRE 1536 128 1440 128
WIRE 288 144 288 -16
WIRE 464 160 464 96
WIRE 1536 160 1536 128
WIRE 1376 192 1376 112
WIRE 800 208 800 160
WIRE 240 224 112 224
WIRE 560 224 560 192
WIRE 560 224 512 224
WIRE 768 224 560 224
WIRE 1440 224 1440 128
WIRE 288 256 288 240
WIRE 384 256 288 256
WIRE 512 256 512 224
WIRE 512 256 464 256
WIRE 768 256 640 256
WIRE 288 272 288 256
WIRE 560 272 560 224
WIRE 640 272 640 256
WIRE 112 288 112 224
WIRE 1344 304 944 304
WIRE 1728 336 1616 336
WIRE 2064 336 1728 336
WIRE 2080 336 2064 336
WIRE 768 352 640 352
WIRE 288 368 288 352
WIRE 384 368 288 368
WIRE 512 368 464 368
WIRE 1344 368 1200 368
WIRE -640 384 -640 336
WIRE 512 384 512 368
WIRE 560 384 560 336
WIRE 560 384 512 384
WIRE 768 384 560 384
WIRE 880 384 880 368
WIRE 976 384 880 384
WIRE 112 416 112 368
WIRE 288 416 288 368
WIRE 560 416 560 384
WIRE 976 416 976 384
WIRE 1728 432 1728 336
WIRE 2080 448 2080 336
WIRE 800 480 800 400
WIRE -640 512 -640 464
WIRE -544 512 -640 512
WIRE 976 512 976 496
WIRE 1376 512 1376 480
WIRE 1440 512 1440 448
WIRE 1440 512 1376 512
WIRE -544 528 -544 512
WIRE 560 544 560 480
WIRE -640 560 -640 512
WIRE 1376 560 1376 512
WIRE 2080 576 2080 528
WIRE 1200 608 1200 368
WIRE 1728 608 1728 512
WIRE 1728 608 1200 608
WIRE 464 624 288 624
WIRE 464 656 464 624
WIRE -640 688 -640 640
WIRE 1728 688 1728 608
WIRE 640 736 560 736
WIRE 560 768 560 736
WIRE 640 768 640 736
WIRE 1536 768 1440 768
WIRE 288 784 288 624
WIRE 464 800 464 736
WIRE 1536 800 1536 768
WIRE 1728 800 1728 768
WIRE 1376 832 1376 752
WIRE 800 848 800 768
WIRE 240 864 112 864
WIRE 560 864 560 832
WIRE 560 864 512 864
WIRE 768 864 560 864
WIRE 976 864 976 736
WIRE 976 864 880 864
WIRE 1440 864 1440 768
WIRE 880 880 880 864
WIRE 288 896 288 880
WIRE 384 896 288 896
WIRE 512 896 512 864
WIRE 512 896 464 896
WIRE 768 896 640 896
WIRE 288 912 288 896
WIRE 560 912 560 864
WIRE 640 912 640 896
WIRE 112 928 112 864
WIRE 1344 944 944 944
WIRE 1728 976 1616 976
WIRE 2064 976 1728 976
WIRE 2080 976 2064 976
WIRE 768 992 640 992
WIRE 288 1008 288 992
WIRE 384 1008 288 1008
WIRE 512 1008 464 1008
WIRE 1344 1008 1200 1008
WIRE 512 1024 512 1008
WIRE 560 1024 560 976
WIRE 560 1024 512 1024
WIRE 768 1024 560 1024
WIRE 112 1056 112 1008
WIRE 560 1056 560 1024
WIRE 800 1088 800 1040
WIRE 2080 1088 2080 976
WIRE 1376 1152 1376 1120
WIRE 1440 1152 1440 1088
WIRE 1440 1152 1376 1152
WIRE 288 1184 288 1008
WIRE 560 1184 560 1120
WIRE 1376 1200 1376 1152
WIRE 2080 1216 2080 1168
WIRE 1200 1248 1200 1008
WIRE 1728 1248 1728 976
WIRE 1728 1248 1200 1248
FLAG 112 416 0
FLAG 288 416 0
FLAG 464 160 0
FLAG -544 528 0
FLAG -640 688 V-
FLAG -640 336 V+
FLAG 800 160 V+
FLAG 800 480 V-
FLAG 976 512 0
FLAG 2064 336 VPosOut
FLAG 560 544 0
FLAG 640 128 0
FLAG 112 1056 0
FLAG 288 1184 0
FLAG 464 800 0
FLAG 800 1088 V+
FLAG 800 768 V-
FLAG 976 736 0
FLAG 2064 976 VNegOut
FLAG 560 1184 0
FLAG 640 768 0
FLAG 1376 560 V+
FLAG 1376 112 V-
FLAG 1536 160 0
FLAG 1376 1200 V+
FLAG 1376 752 V-
FLAG 1536 800 0
FLAG 2080 576 0
FLAG 2080 1216 0
FLAG 1728 800 0
SYMBOL nmos 240 144 R0
SYMATTR InstName M1
SYMBOL voltage 112 272 R0
WINDOW 123 0 0 Left 0
WINDOW 39 0 0 Left 0
SYMATTR InstName V1
SYMATTR Value {VIn}
SYMBOL res 272 256 R0
SYMATTR InstName R1
SYMATTR Value {Rsense}
SYMBOL voltage 464 0 R0
WINDOW 123 0 0 Left 0
WINDOW 39 0 0 Left 0
SYMATTR InstName V2
SYMATTR Value {SUTVS}
SYMBOL Opamps\\AD8421 800 304 R0
SYMATTR InstName U1
SYMBOL voltage -640 544 R0
WINDOW 123 0 0 Left 0
WINDOW 39 0 0 Left 0
SYMATTR InstName V3
SYMATTR Value 12
SYMBOL voltage -640 368 R0
WINDOW 123 0 0 Left 0
WINDOW 39 0 0 Left 0
SYMATTR InstName V4
SYMATTR Value 12
SYMBOL cap 544 272 R0
SYMATTR InstName C1
SYMATTR Value 10n
SYMBOL cap 544 128 R0
SYMATTR InstName C2
SYMATTR Value 1n
SYMBOL cap 544 416 R0
SYMATTR InstName C3
SYMATTR Value 1n
SYMBOL res 480 352 R90
WINDOW 0 0 56 VBottom 2
WINDOW 3 32 56 VTop 2
SYMATTR InstName R3
SYMATTR Value 33R
SYMBOL res 480 240 R90
WINDOW 0 0 56 VBottom 2
WINDOW 3 32 56 VTop 2
SYMATTR InstName R4
SYMATTR Value 33R
SYMBOL voltage 112 1024 R180
WINDOW 123 0 0 Left 0
WINDOW 39 0 0 Left 0
SYMATTR InstName V6
SYMATTR Value {VIn}
SYMBOL res 272 896 R0
SYMATTR InstName R5
SYMATTR Value {Rsense}
SYMBOL voltage 464 752 R180
WINDOW 123 0 0 Left 0
WINDOW 39 0 0 Left 0
SYMATTR InstName V7
SYMATTR Value {SUTVS}
SYMBOL Opamps\\AD8421 800 944 M180
SYMATTR InstName U2
SYMBOL cap 544 912 R0
SYMATTR InstName C4
SYMATTR Value 10n
SYMBOL cap 544 768 R0
SYMATTR InstName C5
SYMATTR Value 1n
SYMBOL cap 544 1056 R0
SYMATTR InstName C6
SYMATTR Value 1n
SYMBOL res 480 992 R90
WINDOW 0 0 56 VBottom 2
WINDOW 3 32 56 VTop 2
SYMATTR InstName R7
SYMATTR Value 33R
SYMBOL res 480 880 R90
WINDOW 0 0 56 VBottom 2
WINDOW 3 32 56 VTop 2
SYMATTR InstName R8
SYMATTR Value 33R
SYMBOL pmos 240 784 R0
SYMATTR InstName M2
SYMBOL res 624 256 R0
SYMATTR InstName R2
SYMATTR Value 5R
SYMBOL res 624 896 R0
SYMATTR InstName R6
SYMATTR Value 5R
SYMBOL Opamps\\LTC2058 1504 336 M180
SYMATTR InstName U3
SYMBOL Opamps\\LTC2058 1504 976 M180
SYMATTR InstName U4
SYMBOL res 2064 432 R0
SYMATTR InstName R9
SYMATTR Value 50R
SYMBOL res 2064 1072 R0
SYMATTR InstName R10
SYMATTR Value 50R
SYMBOL res 1712 416 R0
SYMATTR InstName R11
SYMATTR Value 10K
SYMBOL res 1712 672 R0
SYMATTR InstName R12
SYMATTR Value 1K
SYMBOL voltage 976 512 R180
WINDOW 0 24 96 Left 2
WINDOW 3 24 16 Left 2
WINDOW 123 0 0 Left 0
WINDOW 39 0 0 Left 0
SYMATTR InstName V5
SYMATTR Value 0.1
TEXT -352 312 Left 2 !.STEP PARAM VIn 0 5 0.5
TEXT -344 576 Left 2 !.TRAN 1
TEXT -352 464 Left 2 !.PARAM SUTVS 9
TEXT -352 504 Left 2 !.PARAM Rsense 0.1R
