Version 4
SHEET 1 880 680
WIRE -480 0 -480 -48
WIRE 144 16 32 16
WIRE 480 16 208 16
WIRE 320 96 320 64
WIRE -144 128 -240 128
WIRE -80 128 -128 128
WIRE 32 128 32 16
WIRE 32 128 0 128
WIRE 64 128 32 128
WIRE 192 128 144 128
WIRE 288 128 192 128
WIRE -480 144 -480 80
WIRE -400 144 -480 144
WIRE 480 144 480 16
WIRE 480 144 384 144
WIRE 544 144 480 144
WIRE -400 160 -400 144
WIRE 288 160 240 160
WIRE -480 192 -480 144
WIRE -240 192 -240 128
WIRE 192 192 192 128
WIRE 320 224 320 192
WIRE 240 272 240 160
WIRE 480 272 480 144
WIRE 480 272 240 272
WIRE 192 304 192 256
WIRE -240 320 -240 272
WIRE -480 336 -480 272
FLAG 192 304 0
FLAG 544 144 Vout
FLAG -128 128 Vin
FLAG -400 160 0
FLAG -480 -48 V+
FLAG -480 336 V-
FLAG -240 320 0
FLAG 320 224 V+
FLAG 320 64 V-
SYMBOL Opamps\\LT6020 336 144 M180
SYMATTR InstName U1
SYMBOL res 160 112 R90
WINDOW 0 0 56 VBottom 2
WINDOW 3 32 56 VTop 2
SYMATTR InstName R1
SYMATTR Value 5K
SYMBOL res 16 112 R90
WINDOW 0 0 56 VBottom 2
WINDOW 3 32 56 VTop 2
SYMATTR InstName R2
SYMATTR Value 5K
SYMBOL cap 208 0 R90
WINDOW 0 0 32 VBottom 2
WINDOW 3 32 32 VTop 2
SYMATTR InstName C1
SYMATTR Value 2n
SYMBOL cap 208 256 R180
WINDOW 0 24 56 Left 2
WINDOW 3 24 8 Left 2
SYMATTR InstName C2
SYMATTR Value 1n
SYMBOL voltage -480 -16 R0
WINDOW 123 0 0 Left 0
WINDOW 39 0 0 Left 0
SYMATTR InstName V1
SYMATTR Value 5
SYMBOL voltage -480 176 R0
WINDOW 123 0 0 Left 0
WINDOW 39 0 0 Left 0
SYMATTR InstName V2
SYMATTR Value 5
SYMBOL Misc\\signal -240 176 R0
WINDOW 123 0 0 Left 0
WINDOW 39 0 0 Left 0
SYMATTR InstName V4
SYMATTR Value SINE(0 1 100)
TEXT -514 410 Left 2 !.tran 2
