Version 4
SHEET 1 1720 708
WIRE 416 -128 224 -128
WIRE 880 -128 480 -128
WIRE 656 -32 592 -32
WIRE -336 0 -336 -16
WIRE 528 0 528 -32
WIRE 656 0 656 -32
WIRE 1168 0 1104 0
WIRE 592 32 592 -32
WIRE 1040 32 1040 0
WIRE 1168 32 1168 0
WIRE 1104 64 1104 0
WIRE -336 112 -336 80
WIRE -272 112 -336 112
WIRE 64 112 -96 112
WIRE 128 112 64 112
WIRE 224 112 224 -128
WIRE 224 112 208 112
WIRE 240 112 224 112
WIRE 384 112 320 112
WIRE 496 112 384 112
WIRE -272 128 -272 112
WIRE -336 144 -336 112
WIRE 880 144 880 -128
WIRE 880 144 768 144
WIRE 1008 144 880 144
WIRE -96 160 -96 112
WIRE 384 176 384 112
WIRE 496 176 448 176
WIRE 1376 176 1280 176
WIRE 1488 176 1376 176
WIRE 1008 208 928 208
WIRE -336 256 -336 224
WIRE 592 288 592 256
WIRE 592 288 528 288
WIRE 1376 288 1376 176
WIRE -96 304 -96 240
WIRE 384 304 384 240
WIRE 528 320 528 288
WIRE 1104 320 1104 288
WIRE 1104 320 1040 320
WIRE 1040 352 1040 320
WIRE 448 400 448 176
WIRE 880 400 880 144
WIRE 880 400 448 400
WIRE 928 480 928 208
WIRE 1376 480 1376 368
WIRE 1376 480 928 480
WIRE 1376 544 1376 480
WIRE 1376 688 1376 624
FLAG -272 128 0
FLAG -336 256 V-
FLAG -336 -16 V+
FLAG 528 320 V+
FLAG 528 -32 V-
FLAG 1488 176 Vout2
FLAG 64 112 Vin
FLAG -96 304 0
FLAG 384 304 0
FLAG 656 0 0
FLAG 1040 0 V-
FLAG 1168 32 0
FLAG 1040 352 V+
FLAG 1376 688 0
FLAG 880 144 Vout1
SYMBOL voltage -336 128 R0
WINDOW 123 0 0 Left 0
WINDOW 39 0 0 Left 0
SYMATTR InstName V1
SYMATTR Value 12
SYMBOL voltage -336 -16 R0
WINDOW 123 0 0 Left 0
WINDOW 39 0 0 Left 0
SYMATTR InstName V2
SYMATTR Value 12
SYMBOL res 336 96 R90
WINDOW 0 0 56 VBottom 2
WINDOW 3 32 56 VTop 2
SYMATTR InstName R1
SYMATTR Value 100R
SYMBOL res 224 96 R90
WINDOW 0 0 56 VBottom 2
WINDOW 3 32 56 VTop 2
SYMATTR InstName R2
SYMATTR Value 100R
SYMBOL cap 480 -144 R90
WINDOW 0 0 32 VBottom 2
WINDOW 3 32 32 VTop 2
SYMATTR InstName C1
SYMATTR Value 20µ
SYMBOL cap 400 240 R180
WINDOW 0 24 56 Left 2
WINDOW 3 24 8 Left 2
SYMATTR InstName C2
SYMATTR Value 10µ
SYMBOL voltage -96 144 R0
WINDOW 123 24 124 Left 2
WINDOW 39 0 0 Left 0
SYMATTR Value2 AC 1
SYMATTR InstName V3
SYMATTR Value ""
SYMBOL Opamps\\LTC2058 656 144 M180
SYMATTR InstName U1
SYMBOL Opamps\\LTC2058 1168 176 M180
SYMATTR InstName U3
SYMBOL res 1360 272 R0
SYMATTR InstName R3
SYMATTR Value 220R
SYMBOL res 1360 528 R0
SYMATTR InstName R4
SYMATTR Value 470R
TEXT -328 360 Left 2 ;.ac dec 100 100 40e6
TEXT -336 392 Left 2 ;;noise V(Vout1) V3 dec 100 10 1K
TEXT -336 432 Left 2 ;.STEP PARAM C1 0u 10u 1u
TEXT -336 488 Left 2 !.noise V(Vout1) V3 dec 100 10 1K
